
#######################################################################
#
#                 Cambridge Crystallographic Data Centre
#                                CCDC 
#
#######################################################################
#
# If this CIF has been generated from an entry in the Cambridge 
# Structural Database, then it will include bibliographic, chemical, 
# crystal, experimental, refinement or atomic coordinate data resulting 
# from the CCDC's data processing and validation procedures.
#
#######################################################################

data_UDEMEW
_symmetry_cell_setting           cubic
_symmetry_space_group_name_H-M   'F d -3 m'
_symmetry_Int_Tables_number      227
_space_group_name_Hall           '-F 4vw 2vw 3'
loop_
_symmetry_equiv_pos_site_id
_symmetry_equiv_pos_as_xyz
1 x,y,z
2 -y,1/4+x,1/4+z
3 x,1/4-y,1/4-z
4 z,x,y
5 3/4-x,1/4-y,1/2+z
6 3/4+y,1/4+x,1/2-z
7 -x,1/4+z,1/4+y
8 3/4+y,-x,3/4+z
9 3/4-x,y,3/4-z
10 3/4-z,1/4-x,1/2+y
11 -y,-x,-z
12 3/4+x,-z,3/4+y
13 z,1/4-x,1/4-y
14 -x,-z,-y
15 3/4-z,x,3/4-y
16 3/4+x,1/4+z,1/2-y
17 y,z,x
18 3/4+z,-y,3/4+x
19 1/2-z,3/4+y,1/4+x
20 3/4+z,3/4+y,-x
21 1/2+y,3/4-z,1/4-x
22 -z,-y,-x
23 1/4-y,z,1/4-x
24 3/4-y,3/4-z,x
25 1/4+z,-y,1/4+x
26 x,1/2+y,1/2+z
27 -y,3/4+x,3/4+z
28 x,3/4-y,3/4-z
29 z,1/2+x,1/2+y
30 3/4-x,3/4-y,z
31 3/4+y,3/4+x,-z
32 -x,3/4+z,3/4+y
33 3/4+y,1/2-x,1/4+z
34 3/4-x,1/2+y,1/4-z
35 3/4-z,3/4-x,y
36 -y,1/2-x,1/2-z
37 3/4+x,1/2-z,1/4+y
38 z,3/4-x,3/4-y
39 -x,1/2-z,1/2-y
40 3/4-z,1/2+x,1/4-y
41 3/4+x,3/4+z,-y
42 y,1/2+z,1/2+x
43 3/4+z,1/2-y,1/4+x
44 1/2-z,1/4+y,3/4+x
45 3/4+z,1/4+y,1/2-x
46 1/2+y,1/4-z,3/4-x
47 -z,1/2-y,1/2-x
48 1/4-y,1/2+z,3/4-x
49 3/4-y,1/4-z,1/2+x
50 1/4+z,1/2-y,3/4+x
51 1/2+x,y,1/2+z
52 1/2-y,1/4+x,3/4+z
53 1/2+x,1/4-y,3/4-z
54 1/2+z,x,1/2+y
55 1/4-x,1/4-y,z
56 1/4+y,1/4+x,-z
57 1/2-x,1/4+z,3/4+y
58 1/4+y,-x,1/4+z
59 1/4-x,y,1/4-z
60 1/4-z,1/4-x,y
61 1/2-y,-x,1/2-z
62 1/4+x,-z,1/4+y
63 1/2+z,1/4-x,3/4-y
64 1/2-x,-z,1/2-y
65 1/4-z,x,1/4-y
66 1/4+x,1/4+z,-y
67 1/2+y,z,1/2+x
68 -z,3/4+y,3/4+x
69 1/4+z,3/4+y,1/2-x
70 y,3/4-z,3/4-x
71 1/2-z,-y,1/2-x
72 3/4-y,z,3/4-x
73 1/4-y,3/4-z,1/2+x
74 1/2+x,1/2+y,z
75 1/2-y,3/4+x,1/4+z
76 1/2+x,3/4-y,1/4-z
77 1/2+z,1/2+x,y
78 1/4-x,3/4-y,1/2+z
79 1/4+y,3/4+x,1/2-z
80 1/2-x,3/4+z,1/4+y
81 1/4+y,1/2-x,3/4+z
82 1/4-x,1/2+y,3/4-z
83 1/4-z,3/4-x,1/2+y
84 1/2-y,1/2-x,-z
85 1/4+x,1/2-z,3/4+y
86 1/2+z,3/4-x,1/4-y
87 1/2-x,1/2-z,-y
88 1/4-z,1/2+x,3/4-y
89 1/4+x,3/4+z,1/2-y
90 1/2+y,1/2+z,x
91 -z,1/4+y,1/4+x
92 1/4+z,1/4+y,-x
93 y,1/4-z,1/4-x
94 1/2-z,1/2-y,-x
95 3/4-y,1/2+z,1/4-x
96 1/4-y,1/4-z,x
97 -x,-y,-z
98 y,3/4-x,3/4-z
99 -x,3/4+y,3/4+z
100 -z,-x,-y
101 1/4+x,3/4+y,1/2-z
102 1/4-y,3/4-x,1/2+z
103 x,3/4-z,3/4-y
104 1/4-y,x,1/4-z
105 1/4+x,-y,1/4+z
106 1/4+z,3/4+x,1/2-y
107 y,x,z
108 1/4-x,z,1/4-y
109 -z,3/4+x,3/4+y
110 x,z,y
111 1/4+z,-x,1/4+y
112 1/4-x,3/4-z,1/2+y
113 -y,-z,-x
114 1/4-z,y,1/4-x
115 1/2+z,1/4-y,3/4-x
116 1/4-z,1/4-y,x
117 1/2-y,1/4+z,3/4+x
118 z,y,x
119 3/4+y,-z,3/4+x
120 1/4+y,1/4+z,-x
121 3/4-z,y,3/4-x
122 -x,1/2-y,1/2-z
123 y,1/4-x,1/4-z
124 -x,1/4+y,1/4+z
125 -z,1/2-x,1/2-y
126 1/4+x,1/4+y,-z
127 1/4-y,1/4-x,z
128 x,1/4-z,1/4-y
129 1/4-y,1/2+x,3/4-z
130 1/4+x,1/2-y,3/4+z
131 1/4+z,1/4+x,-y
132 y,1/2+x,1/2+z
133 1/4-x,1/2+z,3/4-y
134 -z,1/4+x,1/4+y
135 x,1/2+z,1/2+y
136 1/4+z,1/2-x,3/4+y
137 1/4-x,1/4-z,y
138 -y,1/2-z,1/2-x
139 1/4-z,1/2+y,3/4-x
140 1/2+z,3/4-y,1/4-x
141 1/4-z,3/4-y,1/2+x
142 1/2-y,3/4+z,1/4+x
143 z,1/2+y,1/2+x
144 3/4+y,1/2-z,1/4+x
145 1/4+y,3/4+z,1/2-x
146 3/4-z,1/2+y,1/4-x
147 1/2-x,-y,1/2-z
148 1/2+y,3/4-x,1/4-z
149 1/2-x,3/4+y,1/4+z
150 1/2-z,-x,1/2-y
151 3/4+x,3/4+y,-z
152 3/4-y,3/4-x,z
153 1/2+x,3/4-z,1/4-y
154 3/4-y,x,3/4-z
155 3/4+x,-y,3/4+z
156 3/4+z,3/4+x,-y
157 1/2+y,x,1/2+z
158 3/4-x,z,3/4-y
159 1/2-z,3/4+x,1/4+y
160 1/2+x,z,1/2+y
161 3/4+z,-x,3/4+y
162 3/4-x,3/4-z,y
163 1/2-y,-z,1/2-x
164 z,1/4-y,1/4-x
165 3/4-z,1/4-y,1/2+x
166 -y,1/4+z,1/4+x
167 1/2+z,y,1/2+x
168 1/4+y,-z,1/4+x
169 3/4+y,1/4+z,1/2-x
170 1/2-x,1/2-y,-z
171 1/2+y,1/4-x,3/4-z
172 1/2-x,1/4+y,3/4+z
173 1/2-z,1/2-x,-y
174 3/4+x,1/4+y,1/2-z
175 3/4-y,1/4-x,1/2+z
176 1/2+x,1/4-z,3/4-y
177 3/4-y,1/2+x,1/4-z
178 3/4+x,1/2-y,1/4+z
179 3/4+z,1/4+x,1/2-y
180 1/2+y,1/2+x,z
181 3/4-x,1/2+z,1/4-y
182 1/2-z,1/4+x,3/4+y
183 1/2+x,1/2+z,y
184 3/4+z,1/2-x,1/4+y
185 3/4-x,1/4-z,1/2+y
186 1/2-y,1/2-z,-x
187 z,3/4-y,3/4-x
188 3/4-z,3/4-y,x
189 -y,3/4+z,3/4+x
190 1/2+z,1/2+y,x
191 1/4+y,1/2-z,3/4+x
192 3/4+y,3/4+z,-x
_cell_length_a                   72.9057(10)
_cell_length_b                   72.9057(10)
_cell_length_c                   72.9057(10)
_cell_angle_alpha                90
_cell_angle_beta                 90
_cell_angle_gamma                90
_cell_volume                     387511
loop_
_atom_site_label
_atom_site_type_symbol
_atom_site_fract_x
_atom_site_fract_y
_atom_site_fract_z
O2 O 0.2006 0.2006 0.2950
O3 O 0.2158 0.2777 0.2379
C1 C 0.2456 0.2674 0.2456
C2 C 0.2385 0.2623 0.2623
C3 C 0.2323 0.2724 0.2323
C2V C 0.2623 0.2623 0.2385
C1GB C 0.2456 0.2456 0.2674
O3ID O 0.2379 0.2777 0.2158
C1V C 0.2674 0.2456 0.2456
C2GB C 0.2623 0.2385 0.2623
C3GB C 0.2323 0.2323 0.2724
C3V C 0.2724 0.2323 0.2323
O3GB O 0.2379 0.2158 0.2777
O3ED O 0.2158 0.2379 0.2777
O3V O 0.2777 0.2379 0.2158
O3VD O 0.2777 0.2158 0.2379
Cr2 Cr 0.1601 0.1601 0.1931
Cr3 Cr 0.1250 0.1250 0.3431
Cr4 Cr 0.1094 0.1407 0.3849
Cr5 Cr 0.1820 0.1820 0.2866
Cr6 Cr 0.2274 0.1952 0.2966
Cr7 Cr 0.1303 0.2364 0.4100
O45 O 0.1704 0.1704 0.1704
O46 O 0.1250 0.1250 0.3695
O47 O 0.1829 0.1543 0.2063
O48 O 0.1644 0.1347 0.1850
O49 O 0.1235 0.1517 0.3385
O50 O 0.1001 0.1216 0.4013
O51 O 0.1154 0.1596 0.3661
O52 O 0.1991 0.1736 0.2677
O53 O 0.1609 0.1886 0.3019
O54 O 0.2280 0.1776 0.2766
O55 O 0.2253 0.2038 0.3198
O56 O 0.1739 0.2153 0.3095
O57 O 0.1584 0.2513 0.4467
O58 O 0.0274 0.0802 0.4297
O59 O 0.1312 0.2401 0.4366
O60 O 0.0382 0.1093 0.4208
O61 O 0.1316 0.2250 0.3866
O62 O 0.1485 0.2432 0.3684
C4 C 0.1476 0.1024 0.1726
C5 C 0.1616 0.1139 0.1616
C6 C 0.1719 0.1271 0.1719
C7 C 0.0925 0.0924 0.4081
C8 C 0.0750 0.0989 0.4183
C9 C 0.0616 0.0856 0.4291
C10 C 0.0681 0.0681 0.4357
C11 C 0.1050 0.1050 0.4009
C12 C 0.0415 0.0923 0.4279
C13 C 0.2148 0.1574 0.2148
C14 C 0.2092 0.1600 0.2339
C15 C 0.2225 0.1634 0.2474
C16 C 0.2421 0.1633 0.2421
C17 C 0.2162 0.1724 0.2637
C18 C 0.2008 0.1552 0.2008
C19 C 0.1481 0.2031 0.3274
C20 C 0.1449 0.2189 0.3385
C21 C 0.1361 0.2156 0.3566
C22 C 0.1298 0.1971 0.3616
C23 C 0.1301 0.1825 0.3478
C24 C 0.1362 0.1873 0.3297
C25 C 0.1230 0.1637 0.3513
C26 C 0.1392 0.2283 0.3715
C27 C 0.1614 0.2024 0.3127
C28 C 0.2196 0.2196 0.3886
C29 C 0.2109 0.2347 0.3788
C30 C 0.2093 0.2324 0.3566
C31 C 0.2208 0.2208 0.3465
C32 C 0.2175 0.2175 0.3275
C33 C 0.1396 0.2505 0.4481
O47VD O 0.1543 0.1829 0.2063
O48VD O 0.1347 0.1644 0.1850
O49BB O 0.1265 0.0983 0.3385
O49BD O 0.0983 0.1265 0.3385
O49VD O 0.1517 0.1235 0.3385
O50BD O 0.1284 0.1499 0.4013
O52VD O 0.1736 0.1991 0.2677
O53VD O 0.1886 0.1609 0.3019
O62U O 0.1184 0.2568 0.3985
Cr2GB Cr 0.1931 0.1601 0.1601
Cr2V Cr 0.1601 0.1931 0.1601
Cr4BB Cr 0.1406 0.1093 0.3849
Cr7U Cr 0.1600 0.2636 0.3803
C5NC C 0.1361 0.0884 0.1616
C4LB C 0.1726 0.1024 0.1476
O48ID O 0.1850 0.1347 0.1644
C8VD C 0.0989 0.0750 0.4183
C9VD C 0.0856 0.0616 0.4291
O50VD O 0.1216 0.1001 0.4013
C14ID C 0.2339 0.1600 0.2092
C15ID C 0.2474 0.1634 0.2225
O47ID O 0.2063 0.1543 0.1829
C29VD C 0.2347 0.2109 0.3788
C33U C 0.1981 0.2495 0.3896
C30VD C 0.2324 0.2093 0.3566
O55VD O 0.2038 0.2253 0.3198
C29U C 0.1288 0.2653 0.4609
C18V C 0.1552 0.2008 0.2008
C6V C 0.1271 0.1719 0.1719
C25BB C 0.1270 0.0863 0.3513
C25BD C 0.0863 0.1270 0.3513
C25VD C 0.1637 0.1230 0.3513
C11BB C 0.1450 0.1450 0.4009
C17VD C 0.1724 0.2162 0.2637
C27VD C 0.2024 0.1614 0.3127
C26U C 0.1215 0.2717 0.3892
O47GB O 0.2063 0.1829 0.1543
O48GB O 0.1850 0.1644 0.1347
O47V O 0.1543 0.2063 0.1829
O47ED O 0.1829 0.2063 0.1543
O48V O 0.1347 0.1850 0.1644
O48ED O 0.1644 0.1850 0.1347
O50BB O 0.1499 0.1284 0.4013
O59U O 0.1866 0.2599 0.3812
O61U O 0.1366 0.2750 0.3816
C4NC C 0.1476 0.0774 0.1476
C6NC C 0.1229 0.0781 0.1719
C5LB C 0.1616 0.0884 0.1361
C12VD C 0.0923 0.0415 0.4279
C17ID C 0.2637 0.1724 0.2162
C33OD C 0.2495 0.1981 0.3896
O57U O 0.1967 0.2487 0.4084
Cr6VD Cr 0.1952 0.2274 0.2966
C28U C 0.1386 0.2804 0.4696
C30U C 0.1066 0.2676 0.4593
C13V C 0.1574 0.2148 0.2148
C5V C 0.1139 0.1616 0.1616
O51BB O 0.1346 0.0904 0.3661
C23BB C 0.1199 0.0675 0.3478
O51BD O 0.0904 0.1346 0.3661
C23BD C 0.0675 0.1199 0.3478
O51VD O 0.1596 0.1154 0.3661
C23VD C 0.1825 0.1301 0.3478
C7BB C 0.1575 0.1576 0.4081
O54VD O 0.1776 0.2280 0.2766
C15VD C 0.1634 0.2225 0.2474
O56VD O 0.2153 0.1739 0.3095
C19VD C 0.2031 0.1481 0.3274
C21U C 0.1066 0.2844 0.3861
C18GB C 0.2008 0.2008 0.1552
C6GB C 0.1719 0.1719 0.1271
O48NC O 0.1153 0.0650 0.1644
O48BD O 0.1153 0.0856 0.1850
C6LB C 0.1719 0.0781 0.1229
O58VD O 0.0802 0.0274 0.4297
O60VD O 0.1093 0.0382 0.4208
O52ID O 0.2677 0.1736 0.1991
O54ID O 0.2766 0.1776 0.2280
O57OD O 0.2487 0.1967 0.4084
O59OD O 0.2599 0.1866 0.3812
C29DD C 0.1288 0.2891 0.4847
C31U C 0.0965 0.2792 0.4708
C14V C 0.1600 0.2339 0.2092
C14VD C 0.1600 0.2092 0.2339
C4V C 0.1024 0.1726 0.1476
C4BB C 0.1024 0.1476 0.1726
C22BB C 0.1202 0.0529 0.3616
C24BB C 0.1138 0.0627 0.3297
C22BD C 0.0529 0.1202 0.3616
C24BD C 0.0627 0.1138 0.3297
C22VD C 0.1971 0.1298 0.3616
C24VD C 0.1873 0.1362 0.3297
C8BB C 0.1750 0.1511 0.4183
C8BD C 0.1511 0.1750 0.4183
C16V C 0.1633 0.2421 0.2421
C20VD C 0.2189 0.1449 0.3385
C20U C 0.0885 0.2811 0.3949
C22U C 0.1116 0.3029 0.3798
C13GB C 0.2148 0.2148 0.1574
C5GB C 0.1616 0.1616 0.1139
Cr2NC Cr 0.0899 0.0569 0.1601
Cr2BB Cr 0.0899 0.0899 0.1931
O48LB O 0.1850 0.0856 0.1153
O48WD O 0.1644 0.0650 0.1153
Cr5GB Cr 0.2866 0.1820 0.1820
Cr6ID Cr 0.2966 0.1952 0.2274
Cr7OD Cr 0.2636 0.1600 0.3803
C30DD C 0.1066 0.2907 0.4824
C33XC C 0.1396 0.3019 0.4995
C32U C 0.0775 0.2825 0.4675
C15V C 0.1634 0.2474 0.2225
C5L C 0.0884 0.1616 0.1361
C5BB C 0.0884 0.1361 0.1616
C21BB C 0.1139 0.0344 0.3566
C19BB C 0.1019 0.0469 0.3274
C21BD C 0.0344 0.1139 0.3566
C19BD C 0.0469 0.1019 0.3274
C21VD C 0.2156 0.1361 0.3566
C9BB C 0.1884 0.1644 0.4291
C9BD C 0.1644 0.1884 0.4291
C19U C 0.0774 0.2969 0.3981
C23U C 0.0978 0.3175 0.3801
C14GB C 0.2339 0.2092 0.1600
C14ED C 0.2092 0.2339 0.1600
C4P C 0.1476 0.1726 0.1024
C4GB C 0.1726 0.1476 0.1024
O45C O 0.0796 0.0796 0.1704
O47NC O 0.0957 0.0437 0.1829
O47FE O 0.0671 0.0437 0.1543
O48FE O 0.0856 0.0650 0.1347
O47BB O 0.0671 0.0957 0.2063
O47BD O 0.0957 0.0671 0.2063
O48BB O 0.0856 0.1153 0.1850
Cr2LB Cr 0.1931 0.0899 0.0899
Cr2QC Cr 0.1601 0.0569 0.0899
O52GB O 0.2677 0.1991 0.1736
O53GB O 0.3019 0.1609 0.1886
O53ID O 0.3019 0.1886 0.1609
O55ID O 0.3198 0.2038 0.2253
O61OD O 0.2750 0.1366 0.3816
O62VD O 0.2432 0.1485 0.3684
O67OD O 0.2743 0.1655 0.3575
O57XC O 0.1584 0.3033 0.4987
O59XC O 0.1312 0.3134 0.5099
O55U O 0.0698 0.2962 0.4753
O55DD O 0.0698 0.2747 0.4538
Cr1 Cr 0.1727 0.2500 0.4227
O1 O 0.1535 0.2500 0.4035

#END
